/*--------------------------------*- C++ -*----------------------------------*\
  =========                 |
  \\      /  F ield         | OpenFOAM: The Open Source CFD Toolbox
   \\    /   O peration     | Website:  https://openfoam.org
    \\  /    A nd           | Version:  7
     \\/     M anipulation  |
\*---------------------------------------------------------------------------*/
FoamFile
{
    version     2.0;
    format      binary;
    class       polyBoundaryMesh;
    location    "constant/polyMesh";
    object      boundary;
}
// * * * * * * * * * * * * * * * * * * * * * * * * * * * * * * * * * * * * * //

14
(
    stationaryWalls
    {
        type            wall;
        inGroups        List<word> 1(wall);
        nFaces          320;
        startFace       6382;
    }
    inlet
    {
        type            patch;
        nFaces          0;
        startFace       6702;
    }
    outlet
    {
        type            patch;
        nFaces          160;
        startFace       6702;
    }
    cyclicIn1
    {
        type            cyclic;
        inGroups        List<word> 1(cyclic);
        nFaces          0;
        startFace       6862;
        matchTolerance  0.0001;
        transform       unknown;
        neighbourPatch  cyclicIn2;
    }
    cyclicIn2
    {
        type            cyclic;
        inGroups        List<word> 1(cyclic);
        nFaces          0;
        startFace       6862;
        matchTolerance  0.0001;
        transform       unknown;
        neighbourPatch  cyclicIn1;
    }
    cyclicRepeatAMIIn1
    {
        type            cyclicRepeatAMI;
        inGroups        List<word> 1(cyclicRepeatAMI);
        nFaces          0;
        startFace       6862;
        matchTolerance  0.0001;
        transform       unknown;
        neighbourPatch  cyclicRepeatAMIIn2;
        method          faceAreaWeightAMI;
        transformPatch  cyclicIn1;
    }
    cyclicRepeatAMIIn2
    {
        type            cyclicRepeatAMI;
        inGroups        List<word> 1(cyclicRepeatAMI);
        nFaces          94;
        startFace       6862;
        matchTolerance  0.0001;
        transform       unknown;
        neighbourPatch  cyclicRepeatAMIIn1;
        method          faceAreaWeightAMI;
        transformPatch  cyclicIn1;
    }
    cyclicOut1
    {
        type            cyclic;
        inGroups        List<word> 1(cyclic);
        nFaces          100;
        startFace       6956;
        matchTolerance  0.0001;
        transform       unknown;
        neighbourPatch  cyclicOut2;
    }
    cyclicOut2
    {
        type            cyclic;
        inGroups        List<word> 1(cyclic);
        nFaces          100;
        startFace       7056;
        matchTolerance  0.0001;
        transform       unknown;
        neighbourPatch  cyclicOut1;
    }
    cyclicRepeatAMIOut1
    {
        type            cyclicRepeatAMI;
        inGroups        List<word> 1(cyclicRepeatAMI);
        nFaces          0;
        startFace       7156;
        matchTolerance  0.0001;
        transform       unknown;
        neighbourPatch  cyclicRepeatAMIOut2;
        method          faceAreaWeightAMI;
        transformPatch  cyclicIn1;
    }
    cyclicRepeatAMIOut2
    {
        type            cyclicRepeatAMI;
        inGroups        List<word> 1(cyclicRepeatAMI);
        nFaces          160;
        startFace       7156;
        matchTolerance  0.0001;
        transform       unknown;
        neighbourPatch  cyclicRepeatAMIOut1;
        method          faceAreaWeightAMI;
        transformPatch  cyclicIn1;
    }
    movingWalls
    {
        type            wall;
        inGroups        List<word> 1(wall);
        nFaces          224;
        startFace       7316;
    }
    procBoundary0to1
    {
        type            processor;
        inGroups        List<word> 1(processor);
        nFaces          96;
        startFace       7540;
        matchTolerance  0.0001;
        transform       unknown;
        myProcNo        0;
        neighbProcNo    1;
    }
    procBoundary0to2
    {
        type            processor;
        inGroups        List<word> 1(processor);
        nFaces          94;
        startFace       7636;
        matchTolerance  0.0001;
        transform       unknown;
        myProcNo        0;
        neighbProcNo    2;
    }
)

// ************************************************************************* //
